Stray ".ends" card: .ends
LTspice 24.0.12 for Windows
Circuit: * C:\Users\Mahmoud.Shousha\Desktop\171033801\UVLO\171033801 UVLO.asc
Start Time: Mon Apr 14 10:23:50 2025
solver = Alternate
Maximum thread count: 16
tnom = 27
temp = 27
method = Gear
abstol = 1e-09
trtol = 7
c1: Increased Cpar to 1e-12
Instance "m:u1:u1:drv:q2:1": Length shorter than recommended for a level 1 MOSFET.
Instance "m:u1:u1:drv:q1:1": Length shorter than recommended for a level 1 MOSFET.
Instance "m:u1:u1:ldo:q1:1": Length shorter than recommended for a level 1 MOSFET.
u1:u1:ldo:u1:d_1: Emission coefficient, N=0.1, too small, limited to 0.1
u1:u1:soft:d3:d_zr: Emission coefficient, N=0.1, too small, limited to 0.1
u1:u1:soft:d2:d_zr: Emission coefficient, N=0.1, too small, limited to 0.1
u1:u1:soft:d1:d_zr: Emission coefficient, N=0.1, too small, limited to 0.1
u1:u1:erroui:ota:dx: Emission coefficient, N=0.1, too small, limited to 0.1
Per .tran options, skipping operating point for transient analysis.
Ignoring empty pin current: Ix(u1:en)
Changing Tseed to 1e-10
Changing Tseed to 1e-12
Total elapsed time: 2.689 seconds.

